7
TOLUEN
  C       -1.83097        1.92326        0.00000
  C       -3.16464        1.15324        0.00000
  C       -3.16464       -0.38679        0.00000
  C       -1.83097       -1.15681        0.00000
  C       -0.49730       -0.38679        0.00000
  C       -0.49730        1.15324        0.00000
  C        0.83639        1.92323        0.00000
